
#======================================================================
# CRYSTAL DATA
#----------------------------------------------------------------------
data_VESTA_phase_1

_chemical_name_common                  'Tb2BaCoO5 '
_cell_length_a                         3.75597(6)
_cell_length_b                         5.82380(10)
_cell_length_c                         11.5518(2)
_cell_angle_alpha                      90.000000
_cell_angle_beta                       90.000000
_cell_angle_gamma                      90.000000
_cell_volume                           252.683843
_space_group_name_H-M_alt              'I m m m'
_space_group_IT_number                 71

loop_
_space_group_symop_operation_xyz
   'x, y, z'
   '-x, -y, -z'
   '-x, -y, z'
   'x, y, -z'
   '-x, y, -z'
   'x, -y, z'
   'x, -y, -z'
   '-x, y, z'
   'x+1/2, y+1/2, z+1/2'
   '-x+1/2, -y+1/2, -z+1/2'
   '-x+1/2, -y+1/2, z+1/2'
   'x+1/2, y+1/2, -z+1/2'
   '-x+1/2, y+1/2, -z+1/2'
   'x+1/2, -y+1/2, z+1/2'
   'x+1/2, -y+1/2, -z+1/2'
   '-x+1/2, y+1/2, z+1/2'

loop_
   _atom_site_label
   _atom_site_occupancy
   _atom_site_fract_x
   _atom_site_fract_y
   _atom_site_fract_z
   _atom_site_adp_type
   _atom_site_U_iso_or_equiv
   _atom_site_type_symbol
   Ba         1.0     0.500000     0.500000     0.000000    Uiso  0.002500 Ba
   Tb         1.0     0.500000     0.000000     0.20342(11) Uiso -0.001200 Tb
   Co         1.0     0.000000     0.000000     0.000000    Uiso -0.001500 Co
   O1         1.0     0.000000     0.2340(15)   0.1480(8)   Uiso  0.006000 O
   O2         1.0     0.500000     0.000000     0.000000    Uiso  0.006000 O
